Circuit: * C:\Users\lugfe\Documents\GitHub\ASSD\ASSD-TP3\offset\sim.asc

Early termination of direct N-R iteration.
Direct Newton iteration failed to find .op point.  (Use ".option noopiter" to skip.)
Starting Gmin stepping
Gmin = 10
vernier = 0.5
vernier = 0.25
vernier = 0.125
Gmin = 5.5165
vernier = 0.0625
vernier = 0.03125
vernier = 0.015625
vernier = 0.0078125
Gmin = 5.48432
vernier = 0.00390625
vernier = 0.00195313
vernier = 0.000976563
vernier = 0.000488281
Gmin = 0
Gmin stepping failed

Starting source stepping with srcstepmethod=0
Source Step = 3.0303%
Source Step = 33.3333%
Source Step = 63.6364%
Source Step = 93.9394%
Source stepping succeeded in finding the operating point.


Date: Wed May 29 14:52:22 2019
Total elapsed time: 0.288 seconds.

tnom = 27
temp = 27
method = modified trap
totiter = 4106
traniter = 2462
tranpoints = 1088
accept = 1060
rejected = 28
matrix size = 59
fillins = 211
solver = Normal
Matrix Compiler1: 14.78 KB object code size  2.7/1.2/[0.6]
Matrix Compiler2: 8.66 KB object code size  2.5/3.9/[1.0]

